Version 4
SHEET 1 880 680
WIRE 384 240 304 240
WIRE 416 240 384 240
WIRE 384 336 384 320
WIRE 480 352 384 352
WIRE 128 416 112 416
WIRE 224 416 208 416
WIRE 240 416 224 416
WIRE 336 416 320 416
WIRE 224 432 224 416
WIRE 224 528 224 512
WIRE 384 528 384 432
FLAG 224 528 0
FLAG 384 528 0
FLAG 112 416 0
FLAG 496 240 0
SYMBOL Res 208 416 R0
WINDOW 0 -35 88 Left 2
WINDOW 3 -55 67 Left 2
SYMATTR InstName Ri
SYMATTR Value 100k
SYMBOL Res 224 432 R270
WINDOW 0 32 56 VTop 2
WINDOW 3 78 53 VBottom 2
SYMATTR InstName RG
SYMATTR Value 1k
SYMBOL Voltage 224 416 R90
WINDOW 0 -32 56 VBottom 2
WINDOW 3 -79 62 VTop 2
SYMATTR InstName Vi
SYMBOL nmos 336 336 R0
SYMATTR InstName M1
SYMATTR Value IRFML8244
SYMBOL Res 368 224 R0
WINDOW 0 -46 40 Left 2
WINDOW 3 -51 61 Left 2
SYMATTR InstName RD
SYMATTR Value 200
SYMBOL Voltage 400 240 R270
WINDOW 0 32 56 VTop 2
WINDOW 3 -32 56 VBottom 2
SYMATTR InstName VDD
SYMATTR Value 5
TEXT 128 304 Left 2 !.dc Vi 1.8 2.4 1m
